MatpowerDataProcesssed/d_gbsys.m
% 01/10/12 File data originated from Matpower data file
% 

Bus.con = [ ...
      1      400        1        0    1    1;
      2      400        1        0    1    1;
      4      275        1        0    1    1;
      5      132        1        0    1    1;
      6      275        1        0    1    1;
      7      132        1        0    1    1;
      8      132        1        0    1    1;
      9      400        1        0    1    1;
     10      400        1        0    1    1;
     11      400        1        0    1    1;
     12      400        1        0    1    1;
     13      400        1        0    1    1;
     14      400        1        0    1    1;
     15      132        1        0    1    1;
     16      132        1        0    1    1;
     17      132        1        0    1    1;
     18      275        1        0    1    1;
     19      132        1        0    1    1;
     20      275        1        0    1    1;
     21      400        1        0    1    1;
     22      400        1        0    1    1;
     23      275        1        0    1    1;
     24      275        1        0    1    1;
     25      132        1        0    1    1;
     26      132        1        0    1    1;
     27      275        1        0    1    1;
     28      132        1        0    1    1;
     29      275        1        0    1    1;
     30      275        1        0    1    1;
     31      400        1        0    1    1;
     34      275        1        0    1    1;
     35      275        1        0    1    1;
     36      400        1        0    1    1;
     37      132        1        0    1    1;
     38      132        1        0    1    1;
     39      275        1        0    1    1;
     40      400        1        0    1    1;
     41      400        1        0    1    1;
     42      132        1        0    1    1;
     43      132        1        0    1    1;
     44      275        1        0    1    1;
     45      275        1        0    1    1;
     46      275        1        0    1    1;
     47      132        1        0    1    1;
     48      275        1        0    1    1;
     49      132        1        0    1    1;
     50      132        1        0    1    1;
     51      400        1        0    1    1;
     52      132        1        0    1    1;
     53      132        1        0    1    1;
     54      132        1        0    1    1;
     55      275        1        0    1    1;
     56      400        1        0    1    1;
     57      132        1        0    1    1;
     58      132        1        0    1    1;
     59      132        1        0    1    1;
     60      132        1        0    1    1;
     61      400        1        0    1    1;
     62      400        1        0    1    1;
     63      132        1        0    1    1;
     64      275        1        0    1    1;
     65      400        1        0    1    1;
     66      132        1        0    1    1;
     67      275        1        0    1    1;
     68      400        1        0    1    1;
     69      132        1        0    1    1;
     70      132        1        0    1    1;
     71      275        1        0    1    1;
     72      275        1        0    1    1;
     73      275        1        0    1    1;
     74      275        1        0    1    1;
     75      275        1        0    1    1;
     76      275        1        0    1    1;
     77      275        1        0    1    1;
     78      275        1        0    1    1;
     79      275        1        0    1    1;
     80      400        1        0    1    1;
     81      400        1        0    1    1;
     82      132        1        0    1    1;
     83      132        1        0    1    1;
     84      132        1        0    1    1;
     85      132        1        0    1    1;
     86      132        1        0    1    1;
     87      275        1        0    1    1;
     88      275        1        0    1    1;
     89      132        1        0    1    1;
     90      400        1        0    1    1;
     91      275        1        0    1    1;
     92      275        1        0    1    1;
     93      275        1        0    1    1;
     94      132        1        0    1    1;
     95      132        1        0    1    1;
     96      132        1        0    1    1;
     97      400        1        0    1    1;
     98      275        1        0    1    1;
     99      400        1        0    1    1;
    100      400        1        0    1    1;
    101      275        1        0    1    1;
    104      275        1        0    1    1;
    105      400        1        0    1    1;
    106      400        1        0    1    1;
    107      400        1        0    1    1;
    108      132        1        0    1    1;
    109      132        1        0    1    1;
    110      132        1        0    1    1;
    111      132        1        0    1    1;
    112      400        1        0    1    1;
    113      400        1        0    1    1;
    114      132        1        0    1    1;
    115      132        1        0    1    1;
    116      275        1        0    1    1;
    117      275        1        0    1    1;
    118      400        1        0    1    1;
    119      275        1        0    1    1;
    120      275        1        0    1    1;
    121      275        1        0    1    1;
    122      275        1        0    1    1;
    123      400        1        0    1    1;
    124      400        1        0    1    1;
    125      400        1        0    1    1;
    126      132        1        0    1    1;
    127      132        1        0    1    1;
    128      132        1        0    1    1;
    129      400        1        0    1    1;
    130      132        1        0    1    1;
    131      132        1        0    1    1;
    132      275        1        0    1    1;
    133      275        1        0    1    1;
    134      275        1        0    1    1;
    135      275        1        0    1    1;
    136      400        1        0    1    1;
    137      400        1        0    1    1;
    138      400        1        0    1    1;
    139      400        1        0    1    1;
    140      132        1        0    1    1;
    141      275        1        0    1    1;
    142      275        1        0    1    1;
    143      400        1        0    1    1;
    144      132        1        0    1    1;
    145      275        1        0    1    1;
    146      132        1        0    1    1;
    147      275        1        0    1    1;
    148      275        1        0    1    1;
    149      132        1        0    1    1;
    150      275        1        0    1    1;
    151      275        1        0    1    1;
    152      400        1        0    1    1;
    153      132        1        0    1    1;
    154      132        1        0    1    1;
    155      275        1        0    1    1;
    156      275        1        0    1    1;
    157      275        1        0    1    1;
    158      275        1        0    1    1;
    159      400        1        0    1    1;
    160      132        1        0    1    1;
    161      132        1        0    1    1;
    162      132        1        0    1    1;
    163      132        1        0    1    1;
    164      132        1        0    1    1;
    165      132        1        0    1    1;
    166      275        1        0    1    1;
    167      275        1        0    1    1;
    168      400        1        0    1    1;
    169      275        1        0    1    1;
    170      132        1        0    1    1;
    171      275        1        0    1    1;
    172      275        1        0    1    1;
    173      132        1        0    1    1;
    174      400        1        0    1    1;
    175      132        1        0    1    1;
    176      132        1        0    1    1;
    177      400        1        0    1    1;
    178      132        1        0    1    1;
    179      275        1        0    1    1;
    180      275        1        0    1    1;
    181      400        1        0    1    1;
    182      400        1        0    1    1;
    183      132        1        0    1    1;
    184      275        1        0    1    1;
    185      275        1        0    1    1;
    186      400        1        0    1    1;
    187      400        1        0    1    1;
    188      132        1        0    1    1;
    189      132        1        0    1    1;
    190      275        1        0    1    1;
    191      275        1        0    1    1;
    192      132        1        0    1    1;
    193      400        1        0    1    1;
    194      400        1        0    1    1;
    195      132        1        0    1    1;
    196      132        1        0    1    1;
    197      132        1        0    1    1;
    198      132        1        0    1    1;
    199      132        1        0    1    1;
    200      132        1        0    1    1;
    201      132        1        0    1    1;
    202      132        1        0    1    1;
    203      132        1        0    1    1;
    204      275        1        0    1    1;
    205      400        1        0    1    1;
...
   ];

SW.con = [ ...
    187      100      400        1        0        3       -3     1.05     0.95    31.25 1 1  1;
   ];

PV.con = [ ...
   4      100      275        6        1        3       -3     1.05     0.95 1  1;
   4      100      275    1.004        1        3       -3     1.05     0.95 1  1;
   5      100      132     0.19        1        3       -3     1.05     0.95 1  1;
   7      100      132   0.1164        1        3       -3     1.05     0.95 1  1;
   8      100      132   0.1164        1        3       -3     1.05     0.95 1  1;
  17      100      132   0.1059        1        3       -3     1.05     0.95 1  1;
  27      100      275    4.526        1        3       -3     1.05     0.95 1  1;
  30      100      275      8.2        1        3       -3     1.05     0.95 1  1;
  47      100      132   0.5082        1        3       -3     1.05     0.95 1  1;
  48      100      275    3.129        1        3       -3     1.05     0.95 1  1;
  51      100      400    3.528        1        3       -3     1.05     0.95 1  1;
  54      100      132    0.147        1        3       -3     1.05     0.95 1  1;
  57      100      132   0.1554        1        3       -3     1.05     0.95 1  1;
  58      100      132   0.1554        1        3       -3     1.05     0.95 1  1;
  68      100      400     2.15        1        3       -3     1.05     0.95 1  1;
  69      100      132   0.0357        1        3       -3     1.05     0.95 1  1;
  70      100      132   0.0357        1        3       -3     1.05     0.95 1  1;
  72      100      275   0.8364        1        3       -3     1.05     0.95 1  1;
  74      100      275   0.8364        1        3       -3     1.05     0.95 1  1;
  76      100      275   0.8364        1        3       -3     1.05     0.95 1  1;
  77      100      275   0.8364        1        3       -3     1.05     0.95 1  1;
  94      100      132   0.2805        1        3       -3     1.05     0.95 1  1;
  95      100      132   0.2805        1        3       -3     1.05     0.95 1  1;
  97      100      400     1.35        1        3       -3     1.05     0.95 1  1;
 101      100      275    1.225        1        3       -3     1.05     0.95 1  1;
 108      100      132   0.1056        1        3       -3     1.05     0.95 1  1;
 111      100      132     0.19        1        3       -3     1.05     0.95 1  1;
 114      100      132   0.3375        1        3       -3     1.05     0.95 1  1;
 114      100      132   0.1575        1        3       -3     1.05     0.95 1  1;
 126      100      132     0.38        1        3       -3     1.05     0.95 1  1;
 130      100      132    0.362        1        3       -3     1.05     0.95 1  1;
 131      100      132    0.362        1        3       -3     1.05     0.95 1  1;
 135      100      275    9.367        1        3       -3     1.05     0.95 1  1;
 138      100      400      4.8        1        3       -3     1.05     0.95 1  1;
 139      100      400    3.239        1        3       -3     1.05     0.95 1  1;
 139      100      400       16        1        3       -3     1.05     0.95 1  1;
 140      100      132   0.1344        1        3       -3     1.05     0.95 1  1;
 155      100      275     1.76        1        3       -3     1.05     0.95 1  1;
 156      100      275     1.76        1        3       -3     1.05     0.95 1  1;
 160      100      132   0.1814        1        3       -3     1.05     0.95 1  1;
 167      100      275   0.2479        1        3       -3     1.05     0.95 1  1;
 173      100      132    0.361        1        3       -3     1.05     0.95 1  1;
 174      100      400    1.785        1        3       -3     1.05     0.95 1  1;
 174      100      400    15.08        1        3       -3     1.05     0.95 1  1;
 181      100      400      0.7        1        3       -3     1.05     0.95 1  1;
 181      100      400    17.93        1        3       -3     1.05     0.95 1  1;
 181      100      400    12.71        1        3       -3     1.05     0.95 1  1;
 182      100      400     8.22        1        3       -3     1.05     0.95 1  1;
 192      100      132   0.0662        1        3       -3     1.05     0.95 1  1;
 197      100      132   0.1372        1        3       -3     1.05     0.95 1  1;
 198      100      132   0.1256        1        3       -3     1.05     0.95 1  1;
 199      100      132   0.2321        1        3       -3     1.05     0.95 1  1;
 200      100      132   0.2321        1        3       -3     1.05     0.95 1  1;
 201      100      132   0.2761        1        3       -3     1.05     0.95 1  1;
 205      100      400    6.492        1        3       -3     1.05     0.95 1  1;
 206      100      132   0.0625        1        3       -3     1.05     0.95 1  1;
 207      100      132   0.0625        1        3       -3     1.05     0.95 1  1;
 208      100      132    0.042        1        3       -3     1.05     0.95 1  1;
 209      100      132    0.042        1        3       -3     1.05     0.95 1  1;
 211      100      400    5.453        1        3       -3     1.05     0.95 1  1;
 219      100      132   0.2029        1        3       -3     1.05     0.95 1  1;
 221      100      400    15.52        1        3       -3     1.05     0.95 1  1;
 239      100      132   0.7125        1        3       -3     1.05     0.95 1  1;
 246      100      132   0.2254        1        3       -3     1.05     0.95 1  1;
 247      100      132   0.2254        1        3       -3     1.05     0.95 1  1;
 248      100      132   0.7268        1        3       -3     1.05     0.95 1  1;
 250      100      400      0.5        1        3       -3     1.05     0.95 1  1;
 250      100      400     1.45        1        3       -3     1.05     0.95 1  1;
 250      100      400    8.288        1        3       -3     1.05     0.95 1  1;
 254      100      132     0.33        1        3       -3     1.05     0.95 1  1;
 257      100      275    15.59        1        3       -3     1.05     0.95 1  1;
 263      100      275    1.584        1        3       -3     1.05     0.95 1  1;
 266      100      275    14.31        1        3       -3     1.05     0.95 1  1;
 267      100      132    0.705        1        3       -3     1.05     0.95 1  1;
 268      100      132    0.525        1        3       -3     1.05     0.95 1  1;
 269      100      132   0.1567        1        3       -3     1.05     0.95 1  1;
 284      100      132   0.1596        1        3       -3     1.05     0.95 1  1;
 295      100      132    0.494        1        3       -3     1.05     0.95 1  1;
 296      100      132    0.343        1        3       -3     1.05     0.95 1  1;
 307      100      400     9.36        1        3       -3     1.05     0.95 1  1;
 307      100      400    10.84        1        3       -3     1.05     0.95 1  1;
 308      100      400    3.288        1        3       -3     1.05     0.95 1  1;
 311      100      275     1.02        1        3       -3     1.05     0.95 1  1;
 314      100      275     13.5        1        3       -3     1.05     0.95 1  1;
 338      100      275    10.62        1        3       -3     1.05     0.95 1  1;
 344      100      400   0.6705        1        3       -3     1.05     0.95 1  1;
 344      100      400    21.65        1        3       -3     1.05     0.95 1  1;
 350      100      400    10.72        1        3       -3     1.05     0.95 1  1;
 352      100      400    9.666        1        3       -3     1.05     0.95 1  1;
 353      100      400    9.744        1        3       -3     1.05     0.95 1  1;
 357      100      400    1.832        1        3       -3     1.05     0.95 1  1;
 357      100      400    1.317        1        3       -3     1.05     0.95 1  1;
 359      100      400     0.98        1        3       -3     1.05     0.95 1  1;
 360      100      132     0.19        1        3       -3     1.05     0.95 1  1;
 378      100      400    7.712        1        3       -3     1.05     0.95 1  1;
 388      100      400    8.457        1        3       -3     1.05     0.95 1  1;
 396      100      132   0.1159        1        3       -3     1.05     0.95 1  1;
 405      100      132   0.1034        1        3       -3     1.05     0.95 1  1;
 411      100      400     13.3        1        3       -3     1.05     0.95 1  1;
 412      100      132     0.19        1        3       -3     1.05     0.95 1  1;
 421      100      400    13.76        1        3       -3     1.05     0.95 1  1;
 421      100      400     4.83        1        3       -3     1.05     0.95 1  1;
 422      100      132    0.124        1        3       -3     1.05     0.95 1  1;
 424      100      132     0.19        1        3       -3     1.05     0.95 1  1;
 435      100      132    0.245        1        3       -3     1.05     0.95 1  1;
 441      100      400    6.878        1        3       -3     1.05     0.95 1  1;
 464      100      400     9.96        1        3       -3     1.05     0.95 1  1;
 467      100      275     20.1        1        3       -3     1.05     0.95 1  1;
 470      100      132   0.4465        1        3       -3     1.05     0.95 1  1;
 473      100      132    0.144        1        3       -3     1.05     0.95 1  1;
 476      100      132   0.1615        1        3       -3     1.05     0.95 1  1;
 477      100      132   0.1615        1        3       -3     1.05     0.95 1  1;
 486      100      132   0.0522        1        3       -3     1.05     0.95 1  1;
 488      100      275   0.2352        1        3       -3     1.05     0.95 1  1;
 490      100      400     7.56        1        3       -3     1.05     0.95 1  1;
 491      100      132   0.4914        1        3       -3     1.05     0.95 1  1;
 493      100      132   0.1879        1        3       -3     1.05     0.95 1  1;
 503      100      132   0.3185        1        3       -3     1.05     0.95 1  1;
 521      100      132   0.1183        1        3       -3     1.05     0.95 1  1;
 522      100      132   0.1183        1        3       -3     1.05     0.95 1  1;
 543      100      400    3.444        1        3       -3     1.05     0.95 1  1;
 543      100      400    1.354        1        3       -3     1.05     0.95 1  1;
 551      100      132    4.234        1        3       -3     1.05     0.95 1  1;
 567      100      275    12.34        1        3       -3     1.05     0.95 1  1;
 594      100      132    0.171        1        3       -3     1.05     0.95 1  1;
 597      100      132    0.209        1        3       -3     1.05     0.95 1  1;
 598      100      132    0.209        1        3       -3     1.05     0.95 1  1;
 601      100      400    16.17        1        3       -3     1.05     0.95 1  1;
 611      100      400     6.48        1        3       -3     1.05     0.95 1  1;
 613      100      400    8.144        1        3       -3     1.05     0.95 1  1;
 614      100      400    5.863        1        3       -3     1.05     0.95 1  1;
 619      100      275     9.35        1        3       -3     1.05     0.95 1  1;
 623      100      400    10.12        1        3       -3     1.05     0.95 1  1;
 633      100      132   0.1596        1        3       -3     1.05     0.95 1  1;
 634      100      400    10.49        1        3       -3     1.05     0.95 1  1;
 636      100      132   0.1769        1        3       -3     1.05     0.95 1  1;
 643      100      400    11.16        1        3       -3     1.05     0.95 1  1;
 649      100      132    1.464        1        3       -3     1.05     0.95 1  1;
 663      100      400    7.216        1        3       -3     1.05     0.95 1  1;
 665      100      400   0.1395        1        3       -3     1.05     0.95 1  1;
 669      100      400    13.94        1        3       -3     1.05     0.95 1  1;
 681      100      132   0.1714        1        3       -3     1.05     0.95 1  1;
 683      100      275   0.3283        1        3       -3     1.05     0.95 1  1;
 700      100      132     0.12        1        3       -3     1.05     0.95 1  1;
 701      100      132     0.12        1        3       -3     1.05     0.95 1  1;
 709      100      132   0.0475        1        3       -3     1.05     0.95 1  1;
 710      100      132   0.0475        1        3       -3     1.05     0.95 1  1;
 714      100      275    7.917        1        3       -3     1.05     0.95 1  1;
 723      100      132   0.2805        1        3       -3     1.05     0.95 1  1;
 726      100      400    10.94        1        3       -3     1.05     0.95 1  1;
 734      100      132   0.1615        1        3       -3     1.05     0.95 1  1;
 735      100      132   0.1615        1        3       -3     1.05     0.95 1  1;
 739      100      275   0.7714        1        3       -3     1.05     0.95 1  1;
 739      100      275    1.742        1        3       -3     1.05     0.95 1  1;
 741      100      275   0.7714        1        3       -3     1.05     0.95 1  1;
 741      100      275    1.742        1        3       -3     1.05     0.95 1  1;
 742      100      275   0.7714        1        3       -3     1.05     0.95 1  1;
 742      100      275    1.742        1        3       -3     1.05     0.95 1  1;
 743      100      275   0.7714        1        3       -3     1.05     0.95 1  1;
 743      100      275    1.742        1        3       -3     1.05     0.95 1  1;
 745      100      400    1.075        1        3       -3     1.05     0.95 1  1;
 745      100      400    12.67        1        3       -3     1.05     0.95 1  1;
 755      100      400     15.9        1        3       -3     1.05     0.95 1  1;
 759      100      132    1.107        1        3       -3     1.05     0.95 1  1;
 771      100      275    1.352        1        3       -3     1.05     0.95 1  1;
 783      100      275    1.482        1        3       -3     1.05     0.95 1  1;
 789      100      275    1.008        1        3       -3     1.05     0.95 1  1;
 807      100      400     8.82        1        3       -3     1.05     0.95 1  1;
 822      100      400    5.453        1        3       -3     1.05     0.95 1  1;
 823      100      400    4.081        1        3       -3     1.05     0.95 1  1;
 824      100      400     6.56        1        3       -3     1.05     0.95 1  1;
 842      100      132     1.09        1        3       -3     1.05     0.95 1  1;
 843      100      132     1.09        1        3       -3     1.05     0.95 1  1;
 857      100      132   0.0886        1        3       -3     1.05     0.95 1  1;
 858      100      132   0.0886        1        3       -3     1.05     0.95 1  1;
 859      100      132   0.2916        1        3       -3     1.05     0.95 1  1;
 859      100      132    0.098        1        3       -3     1.05     0.95 1  1;
 860      100      132   0.0855        1        3       -3     1.05     0.95 1  1;
 860      100      132    0.098        1        3       -3     1.05     0.95 1  1;
 861      100      132   0.1138        1        3       -3     1.05     0.95 1  1;
 863      100      132     0.63        1        3       -3     1.05     0.95 1  1;
 864      100      400   0.5796        1        3       -3     1.05     0.95 1  1;
 866      100      132     0.95        1        3       -3     1.05     0.95 1  1;
 867      100      275    0.343        1        3       -3     1.05     0.95 1  1;
 868      100      132   0.4284        1        3       -3     1.05     0.95 1  1;
 869      100      132   0.4284        1        3       -3     1.05     0.95 1  1;
 871      100      400     4.83        1        3       -3     1.05     0.95 1  1;
 872      100      132   0.1425        1        3       -3     1.05     0.95 1  1;
 874      100      275      2.4        1        3       -3     1.05     0.95 1  1;
   ];

PQ.con = [ ...
   1 100      400    1.272   0.5846     1.05     0.95 0 1;
   2 100      400    1.272   0.4757     1.05     0.95 0 1;
   4 100      275    2.193   0.8182     1.05     0.95 0 1;
   6 100      275     1.53   0.4475     1.05     0.95 0 1;
   7 100      132   0.1355  0.02826     1.05     0.95 0 1;
   8 100      132   0.1355  0.05062     1.05     0.95 0 1;
   9 100      400    1.024   0.4346     1.05     0.95 0 1;
  10 100      400    1.024   0.4707     1.05     0.95 0 1;
  11 100      400    0.577   0.1254     1.05     0.95 0 1;
  13 100      400    0.577   0.2117     1.05     0.95 0 1;
  15 100      132    0.184  0.07677     1.05     0.95 0 1;
  16 100      132    0.184  0.05061     1.05     0.95 0 1;
  19 100      132     0.25  0.05308     1.05     0.95 0 1;
  20 100      275        1   0.4554     1.05     0.95 0 1;
  21 100      400    2.275   0.9034     1.05     0.95 0 1;
  23 100      275    0.322   0.1023     1.05     0.95 0 1;
  24 100      275    0.322   0.1475     1.05     0.95 0 1;
  25 100      132    0.304   0.1098     1.05     0.95 0 1;
  26 100      132    0.304   0.1381     1.05     0.95 0 1;
  28 100      132    0.428  0.09034     1.05     0.95 0 1;
  29 100      275    2.508   0.9979     1.05     0.95 0 1;
  30 100      275    2.391   0.6941     1.05     0.95 0 1;
  31 100      400      0.1 0.008458     1.05     0.95 0 1;
  34 100      275    3.594    1.265     1.05     0.95 0 1;
  35 100      275    3.594    0.909     1.05     0.95 0 1;
  37 100      132   0.1505  0.05298     1.05     0.95 0 1;
  38 100      132   0.1505  0.04056     1.05     0.95 0 1;
  39 100      275    3.619    1.639     1.05     0.95 0 1;
  40 100      400    0.802  0.09277     1.05     0.95 0 1;
  41 100      400    0.802   0.3447     1.05     0.95 0 1;
  44 100      275     2.72   0.9059     1.05     0.95 0 1;
  45 100      275    4.496   0.9836     1.05     0.95 0 1;
  48 100      275    3.552    1.683     1.05     0.95 0 1;
  49 100      132   0.1445  0.03787     1.05     0.95 0 1;
  50 100      132   0.1445  0.05102     1.05     0.95 0 1;
  51 100      400    8.713     3.01     1.05     0.95 0 1;
  55 100      275    0.664    0.144     1.05     0.95 0 1;
  56 100      400    1.815   0.4577     1.05     0.95 0 1;
  57 100      132    0.187  0.08381     1.05     0.95 0 1;
  58 100      132    0.187  0.08355     1.05     0.95 0 1;
  59 100      132    0.375   0.1717     1.05     0.95 0 1;
  61 100      400    3.366    1.196     1.05     0.95 0 1;
  64 100      275    4.806    1.526     1.05     0.95 0 1;
  67 100      275     3.35      1.5     1.05     0.95 0 1;
  68 100      400    6.277    2.797     1.05     0.95 0 1;
  69 100      132   0.1605  0.07319     1.05     0.95 0 1;
  70 100      132   0.1605  0.07115     1.05     0.95 0 1;
  71 100      275    1.194   0.5199     1.05     0.95 0 1;
  73 100      275    1.194   0.4652     1.05     0.95 0 1;
  75 100      275    1.194   0.5022     1.05     0.95 0 1;
  81 100      400    2.197   0.9279     1.05     0.95 0 1;
  82 100      132    0.064  0.02958     1.05     0.95 0 1;
  83 100      132    0.082  0.01084     1.05     0.95 0 1;
  85 100      132   0.2765  0.08508     1.05     0.95 0 1;
  86 100      132   0.2765   0.1081     1.05     0.95 0 1;
  87 100      275    1.016   0.4433     1.05     0.95 0 1;
  88 100      275    1.016   0.2875     1.05     0.95 0 1;
  89 100      132    0.498  0.02449     1.05     0.95 0 1;
  90 100      400    2.583    1.123     1.05     0.95 0 1;
  92 100      275    1.559   0.5675     1.05     0.95 0 1;
  93 100      275    3.443    1.595     1.05     0.95 0 1;
  94 100      132   0.0865  0.02227     1.05     0.95 0 1;
  95 100      132   0.0865  0.03133     1.05     0.95 0 1;
  96 100      132    -0.05 -0.002933     1.05     0.95 0 1;
  98 100      275    2.369   0.6718     1.05     0.95 0 1;
 101 100      275    1.096   0.4796     1.05     0.95 0 1;
 104 100      275    3.869   0.8668     1.05     0.95 0 1;
 108 100      132    0.012 0.004765     1.05     0.95 0 1;
 111 100      132   -0.001 -0.0002926     1.05     0.95 0 1;
 112 100      400    4.766     1.83     1.05     0.95 0 1;
 113 100      400    1.772   0.7008     1.05     0.95 0 1;
 114 100      132    0.462   0.1595     1.05     0.95 0 1;
 115 100      132     0.32   0.1137     1.05     0.95 0 1;
 118 100      400    1.074   0.2485     1.05     0.95 0 1;
 119 100      275    5.618    1.993     1.05     0.95 0 1;
 120 100      275    5.183     1.83     1.05     0.95 0 1;
 124 100      400    4.178    1.628     1.05     0.95 0 1;
 125 100      400    4.178    1.129     1.05     0.95 0 1;
 126 100      132   0.1835  0.01708     1.05     0.95 0 1;
 127 100      132   0.2305  0.02626     1.05     0.95 0 1;
 128 100      132   0.2305  0.07915     1.05     0.95 0 1;
 132 100      275    0.723   0.1679     1.05     0.95 0 1;
 133 100      275    0.352  0.08127     1.05     0.95 0 1;
 134 100      275    0.352   0.1598     1.05     0.95 0 1;
 135 100      275    0.422   0.1091     1.05     0.95 0 1;
 140 100      132    0.271   0.1175     1.05     0.95 0 1;
 141 100      275    4.752    2.076     1.05     0.95 0 1;
 143 100      400    7.399    1.084     1.05     0.95 0 1;
 144 100      132     0.39   0.1259     1.05     0.95 0 1;
 149 100      132    0.328  0.08507     1.05     0.95 0 1;
 152 100      400     4.45    1.017     1.05     0.95 0 1;
 153 100      132    0.318    0.143     1.05     0.95 0 1;
 154 100      132    0.318   0.1017     1.05     0.95 0 1;
 161 100      132   0.2505   0.1199     1.05     0.95 0 1;
 162 100      132   0.2505  0.03113     1.05     0.95 0 1;
 163 100      132   0.3265  0.08823     1.05     0.95 0 1;
 164 100      132   0.3265   0.0381     1.05     0.95 0 1;
 165 100      132    0.129  0.05636     1.05     0.95 0 1;
 174 100      400    3.338   0.7329     1.05     0.95 0 1;
 176 100      132    0.338  0.08244     1.05     0.95 0 1;
 178 100      132    0.618   0.2204     1.05     0.95 0 1;
 179 100      275   0.4955   0.1814     1.05     0.95 0 1;
 180 100      275   0.4955  0.09635     1.05     0.95 0 1;
 183 100      132    0.063  0.01315     1.05     0.95 0 1;
 185 100      275    1.784   0.5828     1.05     0.95 0 1;
 187 100      400    0.254  0.02526     1.05     0.95 0 1;
 188 100      132   0.0265 0.009226     1.05     0.95 0 1;
 189 100      132   0.0265  0.01238     1.05     0.95 0 1;
 190 100      275    0.386  0.06365     1.05     0.95 0 1;
 191 100      275    0.386   0.1078     1.05     0.95 0 1;
 192 100      132    0.137  0.05174     1.05     0.95 0 1;
 195 100      132   0.1805  0.04887     1.05     0.95 0 1;
 196 100      132   0.1805   0.0523     1.05     0.95 0 1;
 197 100      132    0.062  0.02276     1.05     0.95 0 1;
 198 100      132    0.696   0.3085     1.05     0.95 0 1;
 199 100      132   0.1355  0.06466     1.05     0.95 0 1;
 200 100      132   0.1355  0.04822     1.05     0.95 0 1;
 202 100      132   0.1775  0.04245     1.05     0.95 0 1;
 203 100      132   0.1775  0.06615     1.05     0.95 0 1;
 206 100      132   0.0815  0.02467     1.05     0.95 0 1;
 207 100      132   0.0815  0.03529     1.05     0.95 0 1;
 208 100      132    0.201  0.01862     1.05     0.95 0 1;
 209 100      132    0.201  0.08162     1.05     0.95 0 1;
 210 100      275    2.524   0.3118     1.05     0.95 0 1;
 211 100      400    1.946    0.815     1.05     0.95 0 1;
 212 100      132   -0.054 -0.02007     1.05     0.95 0 1;
 215 100      132    0.238   0.1093     1.05     0.95 0 1;
 218 100      400    4.065    1.917     1.05     0.95 0 1;
 220 100      275    1.003   0.3813     1.05     0.95 0 1;
 224 100      275   0.3225   0.1542     1.05     0.95 0 1;
 225 100      275   0.3225  0.04342     1.05     0.95 0 1;
 226 100      275     0.32  0.06489     1.05     0.95 0 1;
 227 100      132   0.1685  0.03873     1.05     0.95 0 1;
 228 100      132   0.1685  0.03304     1.05     0.95 0 1;
 229 100      132    0.275   0.1013     1.05     0.95 0 1;
 230 100      132    0.275  0.07835     1.05     0.95 0 1;
 231 100      275    3.271   0.9847     1.05     0.95 0 1;
 232 100      275    3.969    1.262     1.05     0.95 0 1;
 234 100      400    0.065  0.02673     1.05     0.95 0 1;
 235 100      400    0.065  0.02246     1.05     0.95 0 1;
 237 100      400     4.91   0.9855     1.05     0.95 0 1;
 242 100      132    0.127  0.05834     1.05     0.95 0 1;
 243 100      132    0.127  0.02565     1.05     0.95 0 1;
 245 100      400    3.372    1.569     1.05     0.95 0 1;
 248 100      132   -0.002 -0.0005152     1.05     0.95 0 1;
 249 100      132    0.032 0.006765     1.05     0.95 0 1;
 250 100      400    3.265    1.033     1.05     0.95 0 1;
 251 100      275    2.774   0.4237     1.05     0.95 0 1;
 256 100      275    6.041    2.606     1.05     0.95 0 1;
 257 100      275    0.309    0.146     1.05     0.95 0 1;
 259 100      275    0.309  0.08814     1.05     0.95 0 1;
 261 100      275    0.309   0.1168     1.05     0.95 0 1;
 265 100      132    0.235  0.06126     1.05     0.95 0 1;
 266 100      275    2.673   0.1294     1.05     0.95 0 1;
 270 100      400    13.98    5.769     1.05     0.95 0 1;
 275 100      275    0.156  0.04534     1.05     0.95 0 1;
 278 100      132    0.109  0.02481     1.05     0.95 0 1;
 279 100      132    0.109  0.03248     1.05     0.95 0 1;
 280 100      275     0.62   0.1921     1.05     0.95 0 1;
 281 100      400      4.2    1.252     1.05     0.95 0 1;
 282 100      132   0.1565  0.05078     1.05     0.95 0 1;
 283 100      132   0.1565  0.07209     1.05     0.95 0 1;
 284 100      132    0.335  0.08105     1.05     0.95 0 1;
 291 100      275   0.3445   0.1235     1.05     0.95 0 1;
 292 100      275   0.3445   0.1449     1.05     0.95 0 1;
 293 100      132    0.107  0.04795     1.05     0.95 0 1;
 294 100      132    0.107  0.04199     1.05     0.95 0 1;
 297 100      132   -0.119 -0.03015     1.05     0.95 0 1;
 298 100      132     0.09  0.04334     1.05     0.95 0 1;
 299 100      132     0.09  0.01613     1.05     0.95 0 1;
 300 100      132     0.25  0.03134     1.05     0.95 0 1;
 302 100      275    0.443   0.2092     1.05     0.95 0 1;
 303 100      132   0.1705  0.06311     1.05     0.95 0 1;
 304 100      132   0.1705  0.04241     1.05     0.95 0 1;
 305 100      132    0.195   0.0463     1.05     0.95 0 1;
 306 100      132    0.195  0.08164     1.05     0.95 0 1;
 307 100      400       12    4.859     1.05     0.95 0 1;
 308 100      400    6.752     1.77     1.05     0.95 0 1;
 309 100      400    0.979   0.3295     1.05     0.95 0 1;
 310 100      400    1.478   0.4173     1.05     0.95 0 1;
 311 100      275    1.398   0.5801     1.05     0.95 0 1;
 315 100      275     0.04 0.008791     1.05     0.95 0 1;
 316 100      275     0.04 0.004602     1.05     0.95 0 1;
 317 100      132   0.0245  0.01111     1.05     0.95 0 1;
 318 100      132   0.0245  0.01057     1.05     0.95 0 1;
 319 100      275    1.552   0.7073     1.05     0.95 0 1;
 320 100      275    1.552   0.5156     1.05     0.95 0 1;
 321 100      132    0.227  0.09716     1.05     0.95 0 1;
 322 100      132    0.227  0.03301     1.05     0.95 0 1;
 331 100      400    3.195    1.039     1.05     0.95 0 1;
 332 100      400    2.098   0.2891     1.05     0.95 0 1;
 335 100      275    1.129   0.5139     1.05     0.95 0 1;
 337 100      275    0.907   0.4251     1.05     0.95 0 1;
 339 100      132    0.239  0.08421     1.05     0.95 0 1;
 341 100      275    1.081  0.02388     1.05     0.95 0 1;
 343 100      132    0.222  0.07409     1.05     0.95 0 1;
 354 100      132    0.025 0.005924     1.05     0.95 0 1;
 355 100      132    0.025  0.00683     1.05     0.95 0 1;
 357 100      400    1.374   0.4995     1.05     0.95 0 1;
 359 100      400    4.425   0.8134     1.05     0.95 0 1;
...
   ];

Line.con = [ ...
   1  441 100      400 60 0         0  0.00053  0.00494   0.1387        0        0     13.9        0        0  1;
   1  245 100      400 60 0         0   0.0015  0.00982   0.0027        0        0     13.9        0        0  1;
   2  245 100      400 60 0         0  0.00105  0.00988   0.2747        0        0     13.9        0        0  1;
   2  441 100      400 60 0         0  0.00053  0.00494   0.1387        0        0     13.9        0        0  1;
   4  591 100      275 60 0         0  0.00177  0.01398   0.0973        0        0     11.4        0        0  1;
   4  142 100      275 60 0         0  0.00044  0.00475   0.0345        0        0     13.5        0        0  1;
   4  731 100      275 60 0         0  0.00256  0.02088   0.1227        0        0     6.25        0        0  1;
   4  738 100      275 60 0         0  0.00125  0.01129   0.1355        0        0      7.7        0        0  1;
   4  738 100      275 60 0         0  0.00125  0.01133   0.0773        0        0     9.55        0        0  1;
   5  424 100      132 60 0         0   0.0264  0.00594   0.0066        0        0     1.11        0        0  1;
   6   78 100      275 60 0         0  0.00143  0.00727   0.0497        0        0     6.25        0        0  1;
   6  798 100      275 60 0         0  0.00041  0.00377   0.0247        0        0     9.55        0        0  1;
   7  519 100      132 60 0         0   0.0006   0.0028   0.0007        0        0     2.29        0        0  1;
   8  520 100      132 60 0         0   0.0006   0.0028   0.0007        0        0     2.29        0        0  1;
   9  698 100      400 60 0         0  0.00156  0.01465   0.4094        0        0     13.9        0        0  1;
   9  359 100      400 60 0         0  0.00209  0.01961   0.5481        0        0     13.9        0        0  1;
  10  699 100      400 60 0         0  0.00156  0.01465   0.4094        0        0     13.9        0        0  1;
  10  359 100      400 60 0         0  0.00209  0.01961   0.5481        0        0     13.9        0        0  1;
  11   12 100      400 60 0         0        0    0.001        0        0        0     20.1        0        0  1;
  11  217 100      400 60 0         0  0.00062  0.00665   0.2188        0        0     20.1        0        0  1;
  11  381 100      400 60 0         0  0.00035  0.00378   0.1243        0        0     20.1        0        0  1;
  13  382 100      400 60 0         0  0.00043   0.0039   0.1194        0        0     13.9        0        0  1;
  13   14 100      400 60 0         0        0    0.001        0        0        0     20.1        0        0  1;
  13  217 100      400 60 0         0  0.00075  0.00686   0.2101        0        0     13.9        0        0  1;
  15  175 100      132 60 0         0   0.0147   0.0337   0.0071        0        0     1.83        0        0  1;
  16  702 100      132 60 0         0   0.0185   0.0527   0.0117        0        0     1.83        0        0  1;
  17  368 100      132 60 0         0   0.0092    0.021   0.0044        0        0     1.32        0        0  1;
  17  654 100      132 60 0         0   0.0102   0.0233   0.0049        0        0     1.32        0        0  1;
  18  873 100      275 60 0         0   0.0028   0.0193   0.0748        0        0     5.35        0        0  1;
  18  683 100      275 60 0         0   0.0039   0.0226    0.103        0        0     5.35        0        0  1;
  19  197 100      132 60 0         0   0.0238   0.0394   0.0093        0        0     0.83        0        0  1;
  20  488 100      275 60 0         0  0.00112  0.00809  0.03028        0        0      6.9        0        0  1;
  21   22 100      400 60 0         0        0    0.001        0        0        0       20        0        0  1;
  21  245 100      400 60 0         0  0.00039  0.00603    0.246        0        0     27.8        0        0  1;
  21  118 100      400 60 0         0  0.00043    0.006   0.2966        0        0     27.8        0        0  1;
  23  147 100      275 60 0         0  0.00047  0.00384  0.02605        0        0     9.55        0        0  1;
  24  148 100      275 60 0         0  0.00047  0.00384  0.02605        0        0     9.55        0        0  1;
  25  188 100      132 60 0         0  0.00556  0.01429    0.105        0        0     1.46        0        0  1;
  25   54 100      132 60 0         0  0.00791  0.03901  0.00994        0        0     1.46        0        0  1;
  26   54 100      132 60 0         0  0.01184  0.03906   0.0095        0        0     1.46        0        0  1;
  26  189 100      132 60 0         0  0.00556  0.01429    0.105        0        0     1.46        0        0  1;
  27  691 100      275 60 0         0  0.00085  0.00773   0.1053        0        0      8.6        0        0  1;
  27  487 100      275 60 0         0  0.00056  0.00511   0.0875        0        0      8.6        0        0  1;
  28   54 100      132 60 0         0  0.00307  0.01508  0.00644        0        0     1.14        0        0  1;
  28   54 100      132 60 0         0  0.00303  0.01491  0.00664        0        0     1.14        0        0  1;
  29   31 100      275 60 0         0  0.00023   0.0267  0.00409        0        0      7.5        0        0  1;
  29  605 100      275 60 0         0  0.00041  0.00436   0.0321        0        0     12.6        0        0  1;
  29   30 100      275 60 0         0        0    0.001        0        0        0       10        0        0  1;
  29   31 100      275 60 0         0  0.00023   0.0267  0.00409        0        0      7.5        0        0  1;
  29  605 100      275 60 0         0  0.00041  0.00436   0.0321        0        0     12.1        0        0  1;
  31  535 100      400 60 0         0        0  0.00434        0        0        0     20.1        0        0  1;
  31  535 100      400 60 0         0        0  0.00438        0        0        0     20.1        0        0  1;
  31  765 100      400 60 0         0  0.00017  0.00186   0.1046        0        0     20.1        0        0  1;
  31  765 100      400 60 0         0  0.00017  0.00185   0.0583        0        0     20.1        0        0  1;
  34  785 100      275 60 0         0  0.00041  0.00375   0.1176        0        0      8.6        0        0  1;
  34   36 100      275 60 0         0  0.00021  0.02608 -0.00941        0        0      7.5        0        0  1;
  34  119 100      275 60 0         0  0.00083  0.00748   0.0647        0        0      7.6        0        0  1;
  34  119 100      275 60 0         0  0.00083  0.00752   0.0802        0        0     9.45        0        0  1;
  34   36 100      275 60 0         0  0.00021  0.02616 -0.00491        0        0      7.5        0        0  1;
  34  785 100      275 60 0         0   0.0004  0.00366   0.0853        0        0     9.95        0        0  1;
  34   35 100      275 60 0         0        0    0.001        0        0        0     14.1        0        0  1;
  34   36 100      275 60 0         0  0.00021  0.02593   -0.003        0        0      7.2        0        0  1;
  36  612 100      400 60 0         0   0.0001   0.0009    1.982        0        0     14.1        0        0  1;
  37  215 100      132 60 0         0  0.02183  0.04862  0.01635        0        0     1.32        0        0  1;
  38  215 100      132 60 0         0  0.02182   0.0486  0.01635        0        0     1.32        0        0  1;
  39  251 100      275 60 0         0   0.0014  0.01427   0.1033        0        0     9.55        0        0  1;
  39  329 100      275 60 0         0  0.00095  0.00952   0.1085        0        0      8.2        0        0  1;
  39  141 100      275 60 0         0  0.00085  0.00777   0.0533        0        0     9.55        0        0  1;
  39  141 100      275 60 0         0  0.00084   0.0076   0.0519        0        0     9.55        0        0  1;
  40  745 100      400 60 0         0  0.00034  0.00627   0.2593        0        0     28.6        0        0  1;
  40  755 100      400 60 0         0  0.00057  0.01066   0.4496        0        0     38.2        0        0  1;
  41  755 100      400 60 0         0  0.00058  0.01068   0.4492        0        0     27.8        0        0  1;
  41  663 100      400 60 0         0  0.00017  0.00315   0.1328        0        0     38.2        0        0  1;
  42  702 100      132 60 0         0  0.00239  0.01199   0.0029        0        0     2.29        0        0  1;
  42  115 100      132 60 0         0        0  0.00861        0        0        0     2.29        0        0  1;
  42  140 100      132 60 0         0   0.0149   0.0341   0.0072        0        0     1.26        0        0  1;
  43  115 100      132 60 0         0        0  0.00851        0        0        0     2.29        0        0  1;
  43  702 100      132 60 0         0  0.00239  0.01199   0.0029        0        0     2.29        0        0  1;
  43  140 100      132 60 0         0   0.0149   0.0341   0.0072        0        0     1.26        0        0  1;
  44  459 100      275 60 0         0        0  0.00298        0        0        0     8.31        0        0  1;
  44   98 100      275 60 0         0        0  0.00661        0        0        0     9.55        0        0  1;
  44   98 100      275 60 0         0        0  0.00665        0        0        0     9.55        0        0  1;
  45  427 100      275 60 0         0  0.00109  0.00989   0.0675        0        0     9.55        0        0  1;
  45  572 100      275 60 0         0  0.00121  0.01209   0.0993        0        0     10.4        0        0  1;
  45  251 100      275 60 0         0  0.00092  0.00912   0.0653        0        0     9.55        0        0  1;
  45  427 100      275 60 0         0  0.00123   0.0111   0.0758        0        0     9.55        0        0  1;
  46  423 100      275 60 0         0    0.006   0.0221   0.1366        0        0     5.25        0        0  1;
  46  567 100      275 60 0         0   0.0042  0.03576    0.216        0        0     10.9        0        0  1;
  46  397 100      275 60 0         0   0.0001    0.001   0.0058        0        0     10.9        0        0  1;
  46  423 100      275 60 0         0    0.006   0.0221   0.1366        0        0     5.25        0        0  1;
  46  167 100      275 60 0         0  0.00378   0.0139   0.0856        0        0     5.25        0        0  1;
  47  793 100      132 60 0         0    0.007  0.01917  0.00355        0        0     1.61        0        0  1;
  48  671 100      275 60 0         0  0.00148  0.01379   0.0628        0        0      6.8        0        0  1;
  48  819 100      275 60 0         0  0.00017  0.01598 -0.00361        0        0       11        0        0  1;
  48  737 100      275 60 0         0  0.00072  0.00686   0.0466        0        0     12.4        0        0  1;
  48  736 100      275 60 0         0  0.00072  0.00682   0.0464        0        0     12.4        0        0  1;
  48  671 100      275 60 0         0  0.00148  0.01379   0.0628        0        0      6.8        0        0  1;
  48  818 100      275 60 0         0  0.00017  0.01598 -0.00361        0        0       11        0        0  1;
  49  246 100      132 60 0         0  0.03065  0.07025   0.0149        0        0     1.32        0        0  1;
  49  296 100      132 60 0         0  0.02162  0.04957  0.01054        0        0     1.26        0        0  1;
  50  247 100      132 60 0         0  0.03065  0.07025   0.0149        0        0     1.32        0        0  1;
  51  538 100      400 60 0         0  0.00055  0.00853   0.3484        0        0     27.8        0        0  1;
  51  475 100      400 60 0         0   0.0007  0.01078     0.44        0        0     27.8        0        0  1;
  51  475 100      400 60 0         0   0.0007  0.01078     0.44        0        0     27.8        0        0  1;
  51  538 100      400 60 0         0  0.00055  0.00853   0.3483        0        0     27.8        0        0  1;
  52   57 100      132 60 0         0   0.0098   0.0223   0.0048        0        0     1.26        0        0  1;
  52   54 100      132 60 0         0   0.0219   0.0501   0.0107        0        0      1.2        0        0  1;
  53   58 100      132 60 0         0   0.0098   0.0223   0.0048        0        0     1.26        0        0  1;
  53   54 100      132 60 0         0   0.0218   0.0497   0.0106        0        0      1.2        0        0  1;
  54  677 100      132 60 0         0        0  0.02587        0        0        0     1.83        0        0  1;
  54  678 100      132 60 0         0        0  0.02587        0        0        0     1.83        0        0  1;
  54  162 100      132 60 0         0        0  0.01852        0        0        0     1.83        0        0  1;
  54  161 100      132 60 0         0        0  0.02318        0        0        0     1.83        0        0  1;
  54   55 100      132 60 0         0        0  0.08946        0        0        0      2.4        0        0  1;
  54   55 100      132 60 0         0        0  0.08946        0        0        0      2.4        0        0  1;
  55  438 100      275 60 0         0        0  0.01495        0        0        0     7.95        0        0  1;
  55  467 100      275 60 0         0  0.00073  0.00915  0.07916        0        0      8.4        0        0  1;
  56  250 100      400 60 0         0  0.00012  0.00152   0.5984        0        0     11.1        0        0  1;
  56  475 100      400 60 0         0  0.00016  0.00246   0.1003        0        0     27.8        0        0  1;
  57  239 100      132 60 0         0   0.0587   0.1341   0.0286        0        0     1.32        0        0  1;
  58  239 100      132 60 0         0   0.0587   0.1341   0.0286        0        0     1.32        0        0  1;
  59  305 100      132 60 0         0  0.00152  0.00239  0.06934        0        0     1.25        0        0  1;
  59  558 100      132 60 0         0  0.00092  0.00746  0.01162        0        0     2.68        0        0  1;
  60  306 100      132 60 0         0  0.00152  0.00239  0.06934        0        0     1.25        0        0  1;
  60   63 100      132 60 0         0  0.00034  0.00256  0.03909        0        0      2.5        0        0  1;
  61   68 100      400 60 0         0  0.00051  0.00798   0.3259        0        0     27.8        0        0  1;
  61  604 100      400 60 0         0  0.00036  0.00551   0.2249        0        0     27.8        0        0  1;
  62  570 100      400 60 0         0   0.0007  0.01089   0.4446        0        0     27.8        0        0  1;
  62  604 100      400 60 0         0  0.00036  0.00551   0.2249        0        0     27.8        0        0  1;
  63  243 100      132 60 0         0  0.00762   0.0146  0.07938        0        0     1.02        0        0  1;
  63  242 100      132 60 0         0  0.00677  0.01419   0.1436        0        0     1.21        0        0  1;
  63  559 100      132 60 0         0  0.00127  0.00986   0.0558        0        0     2.74        0        0  1;
  64  508 100      275 60 0         0  0.00116    0.018   0.1643        0        0       12        0        0  1;
  64   65 100      275 60 0         0  0.00017  0.01588 -0.00494        0        0       10        0        0  1;
  64  231 100      275 60 0         0  0.00076  0.00688   0.0555        0        0      7.6        0        0  1;
  64  425 100      275 60 0         0  0.00086  0.00832   0.5424        0        0      7.6        0        0  1;
  65  555 100      400 60 0         0   0.0007   0.0105   0.3907        0        0     25.2        0        0  1;
  66   70 100      132 60 0         0   0.0061   0.0121   0.0025        0        0     1.12        0        0  1;
  66  175 100      132 60 0         0   0.0308   0.0633   0.0129        0        0     1.12        0        0  1;
  66   69 100      132 60 0         0   0.0061   0.0121   0.0025        0        0     1.12        0        0  1;
  66  264 100      132 60 0         0   0.0354   0.0726   0.0148        0        0     1.12        0        0  1;
  67  484 100      275 60 0         0  0.00089  0.00804   0.0548        0        0     9.55        0        0  1;
  67  667 100      275 60 0         0  0.00068  0.00615   0.0419        0        0     10.9        0        0  1;
  67  655 100      275 60 0         0  0.00047  0.00412   0.4662        0        0      8.5        0        0  1;
  68  643 100      400 60 0         0  0.00046  0.00708   0.2889        0        0     27.8        0        0  1;
  68  543 100      400 60 0         0  0.00132  0.01238   0.3656        0        0     15.9        0        0  1;
  68  643 100      400 60 0         0  0.00046  0.00708   0.2889        0        0     27.8        0        0  1;
  71   72 100      275 60 0         0        0    0.001        0        0        0     10.9        0        0  1;
  71  727 100      275 60 0         0  0.00034  0.00311   0.0545        0        0     10.9        0        0  1;
  71  747 100      275 60 0         0  0.00026  0.00239   0.0163        0        0     10.9        0        0  1;
  73  728 100      275 60 0         0  0.00034  0.00308    0.063        0        0     10.9        0        0  1;
  73  747 100      275 60 0         0  0.00027  0.00244   0.0167        0        0     10.9        0        0  1;
  73   74 100      275 60 0         0        0    0.001        0        0        0     10.9        0        0  1;
  75  727 100      275 60 0         0  0.00034   0.0031   0.0462        0        0     10.9        0        0  1;
  75   76 100      275 60 0         0        0    0.001        0        0        0     10.9        0        0  1;
  75  747 100      275 60 0         0  0.00027  0.00243   0.0166        0        0     10.9        0        0  1;
  77  728 100      275 60 0         0  0.00034  0.00314   0.0624        0        0     10.9        0        0  1;
  77  747 100      275 60 0         0  0.00027  0.00243   0.0166        0        0     10.9        0        0  1;
  78  712 100      275 60 0         0   0.0006  0.00228   0.0161        0        0     6.25        0        0  1;
  78  706 100      275 60 0         0  0.00013  0.00119   0.0008        0        0     9.55        0        0  1;
  78  718 100      275 60 0         0  0.00014   0.0013   0.0089        0        0     6.85        0        0  1;
  78  120 100      275 60 0         0   0.0005  0.00781   0.0713        0        0       12        0        0  1;
  78  385 100      275 60 0         0  0.00064  0.00569   0.1612        0        0     5.57        0        0  1;
  78  539 100      275 60 0         0   0.0007  0.00586    0.249        0        0      4.2        0        0  1;
  78  717 100      275 60 0         0  0.00014   0.0013   0.0089        0        0     6.85        0        0  1;
  78  706 100      275 60 0         0  0.00013  0.00119    0.008        0        0     9.55        0        0  1;
  78  120 100      275 60 0         0  0.00051  0.00788   0.0951        0        0     9.35        0        0  1;
  78   80 100      275 60 0         0  0.00014  0.01677 -0.00614        0        0       10        0        0  1;
  79   80 100      275 60 0         0        0   0.0161        0        0        0       10        0        0  1;
  80  708 100      400 60 0         0   0.0004  0.00619   0.2511        0        0     25.2        0        0  1;
  80  253 100      400 60 0         0  0.00053  0.00758   0.2967        0        0     20.1        0        0  1;
  81  496 100      400 60 0         0  0.00172  0.01571   0.4811        0        0     13.9        0        0  1;
  81  270 100      400 60 0         0  0.00019  0.00292   0.1192        0        0     27.8        0        0  1;
  81  805 100      400 60 0         0  0.00104  0.00953   0.2918        0        0     13.9        0        0  1;
  81  806 100      400 60 0         0  0.00104  0.00953   0.2918        0        0     13.9        0        0  1;
  81  181 100      400 60 0         0  0.00046  0.00707    1.422        0        0       22        0        0  1;
  81  270 100      400 60 0         0  0.00019  0.00292   0.1192        0        0     27.8        0        0  1;
  81  496 100      400 60 0         0  0.00172  0.01571   0.4811        0        0     13.9        0        0  1;
  81  181 100      400 60 0         0  0.00046  0.00707    1.422        0        0       22        0        0  1;
  82  595 100      132 60 0         0   0.0899   0.1487   0.0311        0        0     0.83        0        0  1;
  82  219 100      132 60 0         0  0.06014  0.09963  0.02332        0        0     0.83        0        0  1;
  83   84 100      132 60 0         0   0.0012   0.0027   0.0006        0        0     1.11        0        0  1;
  84  636 100      132 60 0         0   0.0349   0.0799    0.017        0        0     1.26        0        0  1;
  84  192 100      132 60 0         0   0.0394   0.0901   0.0191        0        0     1.26        0        0  1;
  85  165 100      132 60 0         0  0.01072  0.02387  0.00541        0        0     1.32        0        0  1;
  86  165 100      132 60 0         0  0.01072  0.02387  0.00541        0        0     1.32        0        0  1;
  87  349 100      275 60 0         0  0.00083  0.00761    0.117        0        0      2.4        0        0  1;
  88  349 100      275 60 0         0  0.00083  0.00763   0.1246        0        0      2.4        0        0  1;
  89  868 100      132 60 0         0  0.02984   0.0684  0.01449        0        0     1.32        0        0  1;
  89  115 100      132 60 0         0   0.0429   0.0976    0.021        0        0     1.32        0        0  1;
  90  745 100      400 60 0         0  0.00045  0.00839   0.3539        0        0     27.8        0        0  1;
  90  570 100      400 60 0         0  0.00037  0.00697   0.2955        0        0     30.3        0        0  1;
  90  570 100      400 60 0         0  0.00037  0.00701   0.2955        0        0     27.8        0        0  1;
  90  745 100      400 60 0         0  0.00045  0.00844   0.3562        0        0       31        0        0  1;
  91  675 100      275 60 0         0  0.00078  0.00642  0.04351        0        0      7.5        0        0  1;
  91  530 100      275 60 0         0    0.001   0.0082   0.0556        0        0     10.9        0        0  1;
  91  292 100      275 60 0         0  0.00037  0.00134   0.1964        0        0     2.76        0        0  1;
  91  291 100      275 60 0         0  0.00037  0.00134   0.1964        0        0     2.76        0        0  1;
  92  185 100      275 60 0         0  0.00148  0.01571   0.1156        0        0     9.55        0        0  1;
  92  782 100      275 60 0         0        0  0.00332        0        0        0      7.6        0        0  1;
...
   ];

Supply.con = [ ...
   4       100        0        6        0        0       10     0.01        0        0        0        0  1 0 1;
...